LTspice 24.0.12 for Windows
Circuit: * C:\Users\marim\Desktop\summer 2024 projects\internship 2024\Learning PySpice and LTSpice\making a triangle circuit\delta_network.asc
Start Time: Wed Jul  3 18:58:03 2024
solver = Normal
Maximum thread count: 8
tnom = 27
temp = 27
method = modified trap
Direct Newton iteration for .op point succeeded.
Total elapsed time: 0.318 seconds.

